6
Generated by autodE on: 2024-05-31. charge = -1 mult = 1 solvent_name = water E = -599.839762 Ha. Imaginary frequency = -511.6 cm-1
C     4.62211  -0.02702   0.00737
Cl    6.75172   0.07510  -0.01245
H     4.53621  -0.58496  -0.91718
H     4.55176  -0.55648   0.94987
H     4.46607   1.04487  -0.00757
F     2.62821  -0.11992   0.02334
