%mem=16000MB
%nprocshared=4
# PBE1PBE Def2SVP Opt EmpiricalDispersion=GD3BJ NoSymm scrf=(smd,solvent=Water)

 r0_CClH3_opt_g16

0 1
C   -0.14939400  -0.00718200   0.00096200 
Cl   1.63872700   0.07892300  -0.00998400 
H   -0.47605600  -0.55683600  -0.89001400 
H   -0.46649100  -0.52967600   0.91151100 
H   -0.54688700   1.01477200  -0.01237400 



