%mem=16000MB
%nprocshared=4
# PBE1PBE Def2TZVP EmpiricalDispersion=GD3BJ scrf=(smd,solvent=Water)

 r0_CClH3_sp_g16

0 1
C   -0.14500600  -0.00696900   0.00090800 
Cl   1.63715900   0.07891700  -0.00993000 
H   -0.47712400  -0.55606300  -0.88847700 
H   -0.46747700  -0.52894200   0.90994900 
H   -0.54765300   1.01305800  -0.01234900 



