%mem=16000MB
%nprocshared=4
# PBE1PBE Def2TZVP EmpiricalDispersion=GD3BJ Geom=ModRedun scrf=(smd,solvent=Water)

 TS_dOr2Us_ll_ad_0-5_0-1_sp_g16

-1 1
C    4.62210700  -0.02702300   0.00736800 
Cl   6.75171900   0.07510000  -0.01245000 
H    4.53621000  -0.58495900  -0.91718400 
H    4.55175900  -0.55647700   0.94986600 
H    4.46607400   1.04486700  -0.00757000 
F    2.62821100  -0.11991800   0.02334000 

B 1 2
B 1 6



