%mem=16000MB
%nprocshared=4
# PBE1PBE Def2SVP EmpiricalDispersion=GD3BJ Opt=(loose, maxcycles=10) NoSymm scrf=(smd,solvent=Water)

 r0_CClH3_conf0_opt_g16

0 1
C   -0.15839716  -0.00763794   0.00099990 
Cl   1.62820041   0.07850605  -0.00988763 
H   -0.46978918  -0.55266042  -0.88334740 
H   -0.46022281  -0.52569732   0.90464006 
H   -0.53989125   1.00748963  -0.01230494 



