6
autodE path point 0. E = -13.273872021571 charge = -1 mult = 1 solvent = water 
C     5.03847  -0.00676   0.00068
Cl    6.81970   0.07731  -0.00926
H     4.71555  -0.54999  -0.88024
H     4.72402  -0.52303   0.90067
H     4.64696   1.00417  -0.01255
F     1.61139  -0.17011   0.04407
6
autodE path point 1. E = -13.261875824999 charge = -1 mult = 1 solvent = water 
C     4.94051  -0.01147   0.00139
Cl    6.91609   0.08212  -0.00978
H     4.68238  -0.55797  -0.89030
H     4.69089  -0.53064   0.91163
H     4.61314   1.01471  -0.01232
F     1.71308  -0.16515   0.04275
6
autodE path point 2. E = -13.256577237829 charge = -1 mult = 1 solvent = water 
C     4.87407  -0.01457   0.00207
Cl    6.90068   0.08121  -0.00934
H     4.63226  -0.56164  -0.89200
H     4.64071  -0.53428   0.91451
H     4.56219   1.01483  -0.01181
F     1.94617  -0.15395   0.03993
6
autodE path point 3. E = -13.251610047638 charge = -1 mult = 1 solvent = water 
C     4.80638  -0.01775   0.00274
Cl    6.88010   0.08023  -0.00887
H     4.58420  -0.56567  -0.89414
H     4.59342  -0.53822   0.91801
H     4.51400   1.01582  -0.01122
F     2.17798  -0.14281   0.03684
6
autodE path point 4. E = -13.247749435867 charge = -1 mult = 1 solvent = water 
C     4.72471  -0.02175   0.00374
Cl    6.84783   0.07886  -0.00875
H     4.54888  -0.57112  -0.89976
H     4.55939  -0.54351   0.92535
H     4.47914   1.02156  -0.01060
F     2.39613  -0.13245   0.03339
6
autodE path point 5. E = -13.245643399271 charge = -1 mult = 1 solvent = water 
C     4.60610  -0.02731   0.00493
Cl    6.79849   0.07641  -0.00821
H     4.54315  -0.57788  -0.91001
H     4.55684  -0.54992   0.93699
H     4.47364   1.03401  -0.01029
F     2.57786  -0.12372   0.02997
6
autodE path point 6. E = -13.254655858983 charge = -1 mult = 1 solvent = water 
C     4.41096  -0.03624   0.00735
Cl    6.81411   0.07657  -0.00895
H     4.56588  -0.57509  -0.90669
H     4.58201  -0.54719   0.93474
H     4.49653   1.03206  -0.00976
F     2.68659  -0.11852   0.02670
