6
Generated by autodE on: 2024-05-31. charge = -1 mult = 1 solvent_name = water E = -599.429048 Ha
C     5.31393  -0.50915  -0.42567
Cl    4.85009  -1.83295  -2.03143
H     6.27732  -1.04668  -0.32566
H     4.68912  -0.64387   0.45258
H     5.46260   0.52151  -0.73524
F     3.52159   0.27896  -0.81413
