6
Generated by autodE on: 2024-05-31. charge = -1 mult = 1 solvent_name = water E = -13.247637 Ha
C     5.38919   0.66637  -1.04984
Cl    6.99630  -0.38175  -1.97611
H     5.06292   1.15478  -1.94473
H     4.87687  -0.21313  -0.71873
H     6.00733   1.20162  -0.35905
F     3.88400   1.65017  -0.18243
